
---------- Begin Simulation Statistics ----------
sim_seconds                                  0.087872                       # Number of seconds simulated
sim_ticks                                 87872124000                       # Number of ticks simulated
final_tick                                87872124000                       # Number of ticks from beginning of simulation (restored from checkpoints and never reset)
sim_freq                                 1000000000000                       # Frequency of simulated ticks
host_inst_rate                                 810090                       # Simulator instruction rate (inst/s)
host_op_rate                                  1336509                       # Simulator op (including micro ops) rate (op/s)
host_tick_rate                             1590087097                       # Simulator tick rate (ticks/s)
host_mem_usage                                 672024                       # Number of bytes of host memory used
host_seconds                                    55.26                       # Real time elapsed on the host
sim_insts                                    44767523                       # Number of instructions simulated
sim_ops                                      73858738                       # Number of ops (including micro ops) simulated
system.voltage_domain.voltage                       1                       # Voltage in Volts
system.clk_domain.clock                          1000                       # Clock period in ticks
system.mem_ctrls.pwrStateResidencyTicks::UNDEFINED  87872124000                       # Cumulative time (in ticks) in various power states
system.mem_ctrls.bytes_read::cpu.inst           46976                       # Number of bytes read from this memory
system.mem_ctrls.bytes_read::cpu.data          513024                       # Number of bytes read from this memory
system.mem_ctrls.bytes_read::total             560000                       # Number of bytes read from this memory
system.mem_ctrls.bytes_inst_read::cpu.inst        46976                       # Number of instructions bytes read from this memory
system.mem_ctrls.bytes_inst_read::total         46976                       # Number of instructions bytes read from this memory
system.mem_ctrls.bytes_written::writebacks        16640                       # Number of bytes written to this memory
system.mem_ctrls.bytes_written::total           16640                       # Number of bytes written to this memory
system.mem_ctrls.num_reads::cpu.inst              734                       # Number of read requests responded to by this memory
system.mem_ctrls.num_reads::cpu.data             8016                       # Number of read requests responded to by this memory
system.mem_ctrls.num_reads::total                8750                       # Number of read requests responded to by this memory
system.mem_ctrls.num_writes::writebacks           260                       # Number of write requests responded to by this memory
system.mem_ctrls.num_writes::total                260                       # Number of write requests responded to by this memory
system.mem_ctrls.bw_read::cpu.inst             534595                       # Total read bandwidth from this memory (bytes/s)
system.mem_ctrls.bw_read::cpu.data            5838302                       # Total read bandwidth from this memory (bytes/s)
system.mem_ctrls.bw_read::total               6372897                       # Total read bandwidth from this memory (bytes/s)
system.mem_ctrls.bw_inst_read::cpu.inst        534595                       # Instruction read bandwidth from this memory (bytes/s)
system.mem_ctrls.bw_inst_read::total           534595                       # Instruction read bandwidth from this memory (bytes/s)
system.mem_ctrls.bw_write::writebacks          189366                       # Write bandwidth from this memory (bytes/s)
system.mem_ctrls.bw_write::total               189366                       # Write bandwidth from this memory (bytes/s)
system.mem_ctrls.bw_total::writebacks          189366                       # Total bandwidth to/from this memory (bytes/s)
system.mem_ctrls.bw_total::cpu.inst            534595                       # Total bandwidth to/from this memory (bytes/s)
system.mem_ctrls.bw_total::cpu.data           5838302                       # Total bandwidth to/from this memory (bytes/s)
system.mem_ctrls.bw_total::total              6562263                       # Total bandwidth to/from this memory (bytes/s)
system.pwrStateResidencyTicks::UNDEFINED  87872124000                       # Cumulative time (in ticks) in various power states
system.cpu_voltage_domain.voltage                   1                       # Voltage in Volts
system.cpu_clk_domain.clock                       500                       # Clock period in ticks
system.cpu.dtb.walker.pwrStateResidencyTicks::UNDEFINED  87872124000                       # Cumulative time (in ticks) in various power states
system.cpu.dtb.rdAccesses                    20998396                       # TLB accesses on read requests
system.cpu.dtb.wrAccesses                     5824775                       # TLB accesses on write requests
system.cpu.dtb.rdMisses                           232                       # TLB misses on read requests
system.cpu.dtb.wrMisses                           111                       # TLB misses on write requests
system.cpu.apic_clk_domain.clock                 8000                       # Clock period in ticks
system.cpu.interrupts.pwrStateResidencyTicks::UNDEFINED  87872124000                       # Cumulative time (in ticks) in various power states
system.cpu.itb.walker.pwrStateResidencyTicks::UNDEFINED  87872124000                       # Cumulative time (in ticks) in various power states
system.cpu.itb.rdAccesses                           0                       # TLB accesses on read requests
system.cpu.itb.wrAccesses                    59428420                       # TLB accesses on write requests
system.cpu.itb.rdMisses                             0                       # TLB misses on read requests
system.cpu.itb.wrMisses                            78                       # TLB misses on write requests
system.cpu.workload.numSyscalls                    25                       # Number of system calls
system.cpu.pwrStateResidencyTicks::ON     87872124000                       # Cumulative time (in ticks) in various power states
system.cpu.numCycles                        175744248                       # number of cpu cycles simulated
system.cpu.numWorkItemsStarted                      0                       # number of work items this cpu started
system.cpu.numWorkItemsCompleted                    0                       # number of work items this cpu completed
system.cpu.committedInsts                    44767523                       # Number of instructions committed
system.cpu.committedOps                      73858738                       # Number of ops (including micro ops) committed
system.cpu.num_int_alu_accesses              73334756                       # Number of integer alu accesses
system.cpu.num_fp_alu_accesses                   4324                       # Number of float alu accesses
system.cpu.num_vec_alu_accesses                     0                       # Number of vector alu accesses
system.cpu.num_func_calls                      945808                       # number of times a function call or return occured
system.cpu.num_conditional_control_insts      4246093                       # number of instructions that are conditional controls
system.cpu.num_int_insts                     73334756                       # number of integer instructions
system.cpu.num_fp_insts                          4324                       # number of float instructions
system.cpu.num_vec_insts                            0                       # number of vector instructions
system.cpu.num_int_register_reads           164563947                       # number of times the integer registers were read
system.cpu.num_int_register_writes           64004016                       # number of times the integer registers were written
system.cpu.num_fp_register_reads                 6422                       # number of times the floating registers were read
system.cpu.num_fp_register_writes                3209                       # number of times the floating registers were written
system.cpu.num_vec_register_reads                   0                       # number of times the vector registers were read
system.cpu.num_vec_register_writes                  0                       # number of times the vector registers were written
system.cpu.num_cc_register_reads             27729172                       # number of times the CC registers were read
system.cpu.num_cc_register_writes            24993503                       # number of times the CC registers were written
system.cpu.num_mem_refs                      26823164                       # number of memory refs
system.cpu.num_load_insts                    20998389                       # Number of load instructions
system.cpu.num_store_insts                    5824775                       # Number of store instructions
system.cpu.num_idle_cycles                          0                       # Number of idle cycles
system.cpu.num_busy_cycles                  175744248                       # Number of busy cycles
system.cpu.not_idle_fraction                        1                       # Percentage of non-idle cycles
system.cpu.idle_fraction                            0                       # Percentage of idle cycles
system.cpu.Branches                           5689946                       # Number of branches fetched
system.cpu.op_class::No_OpClass                177071      0.24%      0.24% # Class of executed instruction
system.cpu.op_class::IntAlu                  45851688     62.08%     62.32% # Class of executed instruction
system.cpu.op_class::IntMult                       15      0.00%     62.32% # Class of executed instruction
system.cpu.op_class::IntDiv                   1004203      1.36%     63.68% # Class of executed instruction
system.cpu.op_class::FloatAdd                     132      0.00%     63.68% # Class of executed instruction
system.cpu.op_class::FloatCmp                       0      0.00%     63.68% # Class of executed instruction
system.cpu.op_class::FloatCvt                       0      0.00%     63.68% # Class of executed instruction
system.cpu.op_class::FloatMult                      0      0.00%     63.68% # Class of executed instruction
system.cpu.op_class::FloatMultAcc                   0      0.00%     63.68% # Class of executed instruction
system.cpu.op_class::FloatDiv                       0      0.00%     63.68% # Class of executed instruction
system.cpu.op_class::FloatMisc                      0      0.00%     63.68% # Class of executed instruction
system.cpu.op_class::FloatSqrt                      0      0.00%     63.68% # Class of executed instruction
system.cpu.op_class::SimdAdd                      348      0.00%     63.68% # Class of executed instruction
system.cpu.op_class::SimdAddAcc                     0      0.00%     63.68% # Class of executed instruction
system.cpu.op_class::SimdAlu                      682      0.00%     63.68% # Class of executed instruction
system.cpu.op_class::SimdCmp                        0      0.00%     63.68% # Class of executed instruction
system.cpu.op_class::SimdCvt                      776      0.00%     63.68% # Class of executed instruction
system.cpu.op_class::SimdMisc                     530      0.00%     63.68% # Class of executed instruction
system.cpu.op_class::SimdMult                       0      0.00%     63.68% # Class of executed instruction
system.cpu.op_class::SimdMultAcc                    0      0.00%     63.68% # Class of executed instruction
system.cpu.op_class::SimdShift                    129      0.00%     63.68% # Class of executed instruction
system.cpu.op_class::SimdShiftAcc                   0      0.00%     63.68% # Class of executed instruction
system.cpu.op_class::SimdSqrt                       0      0.00%     63.68% # Class of executed instruction
system.cpu.op_class::SimdFloatAdd                   0      0.00%     63.68% # Class of executed instruction
system.cpu.op_class::SimdFloatAlu                   0      0.00%     63.68% # Class of executed instruction
system.cpu.op_class::SimdFloatCmp                   0      0.00%     63.68% # Class of executed instruction
system.cpu.op_class::SimdFloatCvt                   0      0.00%     63.68% # Class of executed instruction
system.cpu.op_class::SimdFloatDiv                   0      0.00%     63.68% # Class of executed instruction
system.cpu.op_class::SimdFloatMisc                  0      0.00%     63.68% # Class of executed instruction
system.cpu.op_class::SimdFloatMult                  0      0.00%     63.68% # Class of executed instruction
system.cpu.op_class::SimdFloatMultAcc               0      0.00%     63.68% # Class of executed instruction
system.cpu.op_class::SimdFloatSqrt                  0      0.00%     63.68% # Class of executed instruction
system.cpu.op_class::MemRead                 20997411     28.43%     92.11% # Class of executed instruction
system.cpu.op_class::MemWrite                 5824085      7.89%    100.00% # Class of executed instruction
system.cpu.op_class::FloatMemRead                 978      0.00%    100.00% # Class of executed instruction
system.cpu.op_class::FloatMemWrite                690      0.00%    100.00% # Class of executed instruction
system.cpu.op_class::IprAccess                      0      0.00%    100.00% # Class of executed instruction
system.cpu.op_class::InstPrefetch                   0      0.00%    100.00% # Class of executed instruction
system.cpu.op_class::total                   73858738                       # Class of executed instruction
system.cpu.dcache.tags.pwrStateResidencyTicks::UNDEFINED  87872124000                       # Cumulative time (in ticks) in various power states
system.cpu.dcache.tags.tagsinuse          1021.781630                       # Cycle average of tags in use
system.cpu.dcache.tags.total_refs            26823171                       # Total number of references to valid blocks.
system.cpu.dcache.tags.sampled_refs             38347                       # Sample count of references to valid blocks.
system.cpu.dcache.tags.avg_refs            699.485514                       # Average number of references to valid blocks.
system.cpu.dcache.tags.warmup_cycle            759000                       # Cycle when the warmup percentage was hit.
system.cpu.dcache.tags.occ_blocks::cpu.data  1021.781630                       # Average occupied blocks per requestor
system.cpu.dcache.tags.occ_percent::cpu.data     0.997834                       # Average percentage of cache occupancy
system.cpu.dcache.tags.occ_percent::total     0.997834                       # Average percentage of cache occupancy
system.cpu.dcache.tags.occ_task_id_blocks::1024         1024                       # Occupied blocks per task id
system.cpu.dcache.tags.age_task_id_blocks_1024::0           25                       # Occupied blocks per task id
system.cpu.dcache.tags.age_task_id_blocks_1024::1           32                       # Occupied blocks per task id
system.cpu.dcache.tags.age_task_id_blocks_1024::2           33                       # Occupied blocks per task id
system.cpu.dcache.tags.age_task_id_blocks_1024::3          471                       # Occupied blocks per task id
system.cpu.dcache.tags.age_task_id_blocks_1024::4          463                       # Occupied blocks per task id
system.cpu.dcache.tags.occ_task_id_percent::1024            1                       # Percentage of cache occupancy per task id
system.cpu.dcache.tags.tag_accesses          53684689                       # Number of tag accesses
system.cpu.dcache.tags.data_accesses         53684689                       # Number of data accesses
system.cpu.dcache.pwrStateResidencyTicks::UNDEFINED  87872124000                       # Cumulative time (in ticks) in various power states
system.cpu.dcache.ReadReq_hits::cpu.data     20967026                       # number of ReadReq hits
system.cpu.dcache.ReadReq_hits::total        20967026                       # number of ReadReq hits
system.cpu.dcache.WriteReq_hits::cpu.data      5802385                       # number of WriteReq hits
system.cpu.dcache.WriteReq_hits::total        5802385                       # number of WriteReq hits
system.cpu.dcache.demand_hits::cpu.data      26769411                       # number of demand (read+write) hits
system.cpu.dcache.demand_hits::total         26769411                       # number of demand (read+write) hits
system.cpu.dcache.overall_hits::cpu.data     26769411                       # number of overall hits
system.cpu.dcache.overall_hits::total        26769411                       # number of overall hits
system.cpu.dcache.ReadReq_misses::cpu.data        31370                       # number of ReadReq misses
system.cpu.dcache.ReadReq_misses::total         31370                       # number of ReadReq misses
system.cpu.dcache.WriteReq_misses::cpu.data        22390                       # number of WriteReq misses
system.cpu.dcache.WriteReq_misses::total        22390                       # number of WriteReq misses
system.cpu.dcache.demand_misses::cpu.data        53760                       # number of demand (read+write) misses
system.cpu.dcache.demand_misses::total          53760                       # number of demand (read+write) misses
system.cpu.dcache.overall_misses::cpu.data        53760                       # number of overall misses
system.cpu.dcache.overall_misses::total         53760                       # number of overall misses
system.cpu.dcache.ReadReq_miss_latency::cpu.data    934378500                       # number of ReadReq miss cycles
system.cpu.dcache.ReadReq_miss_latency::total    934378500                       # number of ReadReq miss cycles
system.cpu.dcache.WriteReq_miss_latency::cpu.data    630062000                       # number of WriteReq miss cycles
system.cpu.dcache.WriteReq_miss_latency::total    630062000                       # number of WriteReq miss cycles
system.cpu.dcache.demand_miss_latency::cpu.data   1564440500                       # number of demand (read+write) miss cycles
system.cpu.dcache.demand_miss_latency::total   1564440500                       # number of demand (read+write) miss cycles
system.cpu.dcache.overall_miss_latency::cpu.data   1564440500                       # number of overall miss cycles
system.cpu.dcache.overall_miss_latency::total   1564440500                       # number of overall miss cycles
system.cpu.dcache.ReadReq_accesses::cpu.data     20998396                       # number of ReadReq accesses(hits+misses)
system.cpu.dcache.ReadReq_accesses::total     20998396                       # number of ReadReq accesses(hits+misses)
system.cpu.dcache.WriteReq_accesses::cpu.data      5824775                       # number of WriteReq accesses(hits+misses)
system.cpu.dcache.WriteReq_accesses::total      5824775                       # number of WriteReq accesses(hits+misses)
system.cpu.dcache.demand_accesses::cpu.data     26823171                       # number of demand (read+write) accesses
system.cpu.dcache.demand_accesses::total     26823171                       # number of demand (read+write) accesses
system.cpu.dcache.overall_accesses::cpu.data     26823171                       # number of overall (read+write) accesses
system.cpu.dcache.overall_accesses::total     26823171                       # number of overall (read+write) accesses
system.cpu.dcache.ReadReq_miss_rate::cpu.data     0.001494                       # miss rate for ReadReq accesses
system.cpu.dcache.ReadReq_miss_rate::total     0.001494                       # miss rate for ReadReq accesses
system.cpu.dcache.WriteReq_miss_rate::cpu.data     0.003844                       # miss rate for WriteReq accesses
system.cpu.dcache.WriteReq_miss_rate::total     0.003844                       # miss rate for WriteReq accesses
system.cpu.dcache.demand_miss_rate::cpu.data     0.002004                       # miss rate for demand accesses
system.cpu.dcache.demand_miss_rate::total     0.002004                       # miss rate for demand accesses
system.cpu.dcache.overall_miss_rate::cpu.data     0.002004                       # miss rate for overall accesses
system.cpu.dcache.overall_miss_rate::total     0.002004                       # miss rate for overall accesses
system.cpu.dcache.ReadReq_avg_miss_latency::cpu.data 29785.734778                       # average ReadReq miss latency
system.cpu.dcache.ReadReq_avg_miss_latency::total 29785.734778                       # average ReadReq miss latency
system.cpu.dcache.WriteReq_avg_miss_latency::cpu.data 28140.330505                       # average WriteReq miss latency
system.cpu.dcache.WriteReq_avg_miss_latency::total 28140.330505                       # average WriteReq miss latency
system.cpu.dcache.demand_avg_miss_latency::cpu.data 29100.455729                       # average overall miss latency
system.cpu.dcache.demand_avg_miss_latency::total 29100.455729                       # average overall miss latency
system.cpu.dcache.overall_avg_miss_latency::cpu.data 29100.455729                       # average overall miss latency
system.cpu.dcache.overall_avg_miss_latency::total 29100.455729                       # average overall miss latency
system.cpu.dcache.blocked_cycles::no_mshrs            0                       # number of cycles access was blocked
system.cpu.dcache.blocked_cycles::no_targets            0                       # number of cycles access was blocked
system.cpu.dcache.blocked::no_mshrs                 0                       # number of cycles access was blocked
system.cpu.dcache.blocked::no_targets               0                       # number of cycles access was blocked
system.cpu.dcache.avg_blocked_cycles::no_mshrs          nan                       # average number of cycles each access was blocked
system.cpu.dcache.avg_blocked_cycles::no_targets          nan                       # average number of cycles each access was blocked
system.cpu.dcache.writebacks::writebacks        35145                       # number of writebacks
system.cpu.dcache.writebacks::total             35145                       # number of writebacks
system.cpu.dcache.ReadReq_mshr_misses::cpu.data        31370                       # number of ReadReq MSHR misses
system.cpu.dcache.ReadReq_mshr_misses::total        31370                       # number of ReadReq MSHR misses
system.cpu.dcache.WriteReq_mshr_misses::cpu.data        22390                       # number of WriteReq MSHR misses
system.cpu.dcache.WriteReq_mshr_misses::total        22390                       # number of WriteReq MSHR misses
system.cpu.dcache.demand_mshr_misses::cpu.data        53760                       # number of demand (read+write) MSHR misses
system.cpu.dcache.demand_mshr_misses::total        53760                       # number of demand (read+write) MSHR misses
system.cpu.dcache.overall_mshr_misses::cpu.data        53760                       # number of overall MSHR misses
system.cpu.dcache.overall_mshr_misses::total        53760                       # number of overall MSHR misses
system.cpu.dcache.ReadReq_mshr_miss_latency::cpu.data    903008500                       # number of ReadReq MSHR miss cycles
system.cpu.dcache.ReadReq_mshr_miss_latency::total    903008500                       # number of ReadReq MSHR miss cycles
system.cpu.dcache.WriteReq_mshr_miss_latency::cpu.data    607672000                       # number of WriteReq MSHR miss cycles
system.cpu.dcache.WriteReq_mshr_miss_latency::total    607672000                       # number of WriteReq MSHR miss cycles
system.cpu.dcache.demand_mshr_miss_latency::cpu.data   1510680500                       # number of demand (read+write) MSHR miss cycles
system.cpu.dcache.demand_mshr_miss_latency::total   1510680500                       # number of demand (read+write) MSHR miss cycles
system.cpu.dcache.overall_mshr_miss_latency::cpu.data   1510680500                       # number of overall MSHR miss cycles
system.cpu.dcache.overall_mshr_miss_latency::total   1510680500                       # number of overall MSHR miss cycles
system.cpu.dcache.ReadReq_mshr_miss_rate::cpu.data     0.001494                       # mshr miss rate for ReadReq accesses
system.cpu.dcache.ReadReq_mshr_miss_rate::total     0.001494                       # mshr miss rate for ReadReq accesses
system.cpu.dcache.WriteReq_mshr_miss_rate::cpu.data     0.003844                       # mshr miss rate for WriteReq accesses
system.cpu.dcache.WriteReq_mshr_miss_rate::total     0.003844                       # mshr miss rate for WriteReq accesses
system.cpu.dcache.demand_mshr_miss_rate::cpu.data     0.002004                       # mshr miss rate for demand accesses
system.cpu.dcache.demand_mshr_miss_rate::total     0.002004                       # mshr miss rate for demand accesses
system.cpu.dcache.overall_mshr_miss_rate::cpu.data     0.002004                       # mshr miss rate for overall accesses
system.cpu.dcache.overall_mshr_miss_rate::total     0.002004                       # mshr miss rate for overall accesses
system.cpu.dcache.ReadReq_avg_mshr_miss_latency::cpu.data 28785.734778                       # average ReadReq mshr miss latency
system.cpu.dcache.ReadReq_avg_mshr_miss_latency::total 28785.734778                       # average ReadReq mshr miss latency
system.cpu.dcache.WriteReq_avg_mshr_miss_latency::cpu.data 27140.330505                       # average WriteReq mshr miss latency
system.cpu.dcache.WriteReq_avg_mshr_miss_latency::total 27140.330505                       # average WriteReq mshr miss latency
system.cpu.dcache.demand_avg_mshr_miss_latency::cpu.data 28100.455729                       # average overall mshr miss latency
system.cpu.dcache.demand_avg_mshr_miss_latency::total 28100.455729                       # average overall mshr miss latency
system.cpu.dcache.overall_avg_mshr_miss_latency::cpu.data 28100.455729                       # average overall mshr miss latency
system.cpu.dcache.overall_avg_mshr_miss_latency::total 28100.455729                       # average overall mshr miss latency
system.cpu.dcache.replacements                  37323                       # number of replacements
system.cpu.dtb_walker_cache.tags.pwrStateResidencyTicks::UNDEFINED  87872124000                       # Cumulative time (in ticks) in various power states
system.cpu.dtb_walker_cache.tags.tagsinuse            0                       # Cycle average of tags in use
system.cpu.dtb_walker_cache.tags.total_refs            0                       # Total number of references to valid blocks.
system.cpu.dtb_walker_cache.tags.sampled_refs            0                       # Sample count of references to valid blocks.
system.cpu.dtb_walker_cache.tags.avg_refs          nan                       # Average number of references to valid blocks.
system.cpu.dtb_walker_cache.tags.warmup_cycle            0                       # Cycle when the warmup percentage was hit.
system.cpu.dtb_walker_cache.tags.tag_accesses            0                       # Number of tag accesses
system.cpu.dtb_walker_cache.tags.data_accesses            0                       # Number of data accesses
system.cpu.dtb_walker_cache.pwrStateResidencyTicks::UNDEFINED  87872124000                       # Cumulative time (in ticks) in various power states
system.cpu.dtb_walker_cache.blocked_cycles::no_mshrs            0                       # number of cycles access was blocked
system.cpu.dtb_walker_cache.blocked_cycles::no_targets            0                       # number of cycles access was blocked
system.cpu.dtb_walker_cache.blocked::no_mshrs            0                       # number of cycles access was blocked
system.cpu.dtb_walker_cache.blocked::no_targets            0                       # number of cycles access was blocked
system.cpu.dtb_walker_cache.avg_blocked_cycles::no_mshrs          nan                       # average number of cycles each access was blocked
system.cpu.dtb_walker_cache.avg_blocked_cycles::no_targets          nan                       # average number of cycles each access was blocked
system.cpu.dtb_walker_cache.replacements            0                       # number of replacements
system.cpu.icache.tags.pwrStateResidencyTicks::UNDEFINED  87872124000                       # Cumulative time (in ticks) in various power states
system.cpu.icache.tags.tagsinuse           458.950209                       # Cycle average of tags in use
system.cpu.icache.tags.total_refs            59428420                       # Total number of references to valid blocks.
system.cpu.icache.tags.sampled_refs               754                       # Sample count of references to valid blocks.
system.cpu.icache.tags.avg_refs          78817.533156                       # Average number of references to valid blocks.
system.cpu.icache.tags.warmup_cycle            439000                       # Cycle when the warmup percentage was hit.
system.cpu.icache.tags.occ_blocks::cpu.inst   458.950209                       # Average occupied blocks per requestor
system.cpu.icache.tags.occ_percent::cpu.inst     0.896387                       # Average percentage of cache occupancy
system.cpu.icache.tags.occ_percent::total     0.896387                       # Average percentage of cache occupancy
system.cpu.icache.tags.occ_task_id_blocks::1024          466                       # Occupied blocks per task id
system.cpu.icache.tags.age_task_id_blocks_1024::0           37                       # Occupied blocks per task id
system.cpu.icache.tags.age_task_id_blocks_1024::1           22                       # Occupied blocks per task id
system.cpu.icache.tags.age_task_id_blocks_1024::4          407                       # Occupied blocks per task id
system.cpu.icache.tags.occ_task_id_percent::1024     0.910156                       # Percentage of cache occupancy per task id
system.cpu.icache.tags.tag_accesses         118857594                       # Number of tag accesses
system.cpu.icache.tags.data_accesses        118857594                       # Number of data accesses
system.cpu.icache.pwrStateResidencyTicks::UNDEFINED  87872124000                       # Cumulative time (in ticks) in various power states
system.cpu.icache.ReadReq_hits::cpu.inst     59427666                       # number of ReadReq hits
system.cpu.icache.ReadReq_hits::total        59427666                       # number of ReadReq hits
system.cpu.icache.demand_hits::cpu.inst      59427666                       # number of demand (read+write) hits
system.cpu.icache.demand_hits::total         59427666                       # number of demand (read+write) hits
system.cpu.icache.overall_hits::cpu.inst     59427666                       # number of overall hits
system.cpu.icache.overall_hits::total        59427666                       # number of overall hits
system.cpu.icache.ReadReq_misses::cpu.inst          754                       # number of ReadReq misses
system.cpu.icache.ReadReq_misses::total           754                       # number of ReadReq misses
system.cpu.icache.demand_misses::cpu.inst          754                       # number of demand (read+write) misses
system.cpu.icache.demand_misses::total            754                       # number of demand (read+write) misses
system.cpu.icache.overall_misses::cpu.inst          754                       # number of overall misses
system.cpu.icache.overall_misses::total           754                       # number of overall misses
system.cpu.icache.ReadReq_miss_latency::cpu.inst    110925000                       # number of ReadReq miss cycles
system.cpu.icache.ReadReq_miss_latency::total    110925000                       # number of ReadReq miss cycles
system.cpu.icache.demand_miss_latency::cpu.inst    110925000                       # number of demand (read+write) miss cycles
system.cpu.icache.demand_miss_latency::total    110925000                       # number of demand (read+write) miss cycles
system.cpu.icache.overall_miss_latency::cpu.inst    110925000                       # number of overall miss cycles
system.cpu.icache.overall_miss_latency::total    110925000                       # number of overall miss cycles
system.cpu.icache.ReadReq_accesses::cpu.inst     59428420                       # number of ReadReq accesses(hits+misses)
system.cpu.icache.ReadReq_accesses::total     59428420                       # number of ReadReq accesses(hits+misses)
system.cpu.icache.demand_accesses::cpu.inst     59428420                       # number of demand (read+write) accesses
system.cpu.icache.demand_accesses::total     59428420                       # number of demand (read+write) accesses
system.cpu.icache.overall_accesses::cpu.inst     59428420                       # number of overall (read+write) accesses
system.cpu.icache.overall_accesses::total     59428420                       # number of overall (read+write) accesses
system.cpu.icache.ReadReq_miss_rate::cpu.inst     0.000013                       # miss rate for ReadReq accesses
system.cpu.icache.ReadReq_miss_rate::total     0.000013                       # miss rate for ReadReq accesses
system.cpu.icache.demand_miss_rate::cpu.inst     0.000013                       # miss rate for demand accesses
system.cpu.icache.demand_miss_rate::total     0.000013                       # miss rate for demand accesses
system.cpu.icache.overall_miss_rate::cpu.inst     0.000013                       # miss rate for overall accesses
system.cpu.icache.overall_miss_rate::total     0.000013                       # miss rate for overall accesses
system.cpu.icache.ReadReq_avg_miss_latency::cpu.inst 147115.384615                       # average ReadReq miss latency
system.cpu.icache.ReadReq_avg_miss_latency::total 147115.384615                       # average ReadReq miss latency
system.cpu.icache.demand_avg_miss_latency::cpu.inst 147115.384615                       # average overall miss latency
system.cpu.icache.demand_avg_miss_latency::total 147115.384615                       # average overall miss latency
system.cpu.icache.overall_avg_miss_latency::cpu.inst 147115.384615                       # average overall miss latency
system.cpu.icache.overall_avg_miss_latency::total 147115.384615                       # average overall miss latency
system.cpu.icache.blocked_cycles::no_mshrs            0                       # number of cycles access was blocked
system.cpu.icache.blocked_cycles::no_targets            0                       # number of cycles access was blocked
system.cpu.icache.blocked::no_mshrs                 0                       # number of cycles access was blocked
system.cpu.icache.blocked::no_targets               0                       # number of cycles access was blocked
system.cpu.icache.avg_blocked_cycles::no_mshrs          nan                       # average number of cycles each access was blocked
system.cpu.icache.avg_blocked_cycles::no_targets          nan                       # average number of cycles each access was blocked
system.cpu.icache.writebacks::writebacks          288                       # number of writebacks
system.cpu.icache.writebacks::total               288                       # number of writebacks
system.cpu.icache.ReadReq_mshr_misses::cpu.inst          754                       # number of ReadReq MSHR misses
system.cpu.icache.ReadReq_mshr_misses::total          754                       # number of ReadReq MSHR misses
system.cpu.icache.demand_mshr_misses::cpu.inst          754                       # number of demand (read+write) MSHR misses
system.cpu.icache.demand_mshr_misses::total          754                       # number of demand (read+write) MSHR misses
system.cpu.icache.overall_mshr_misses::cpu.inst          754                       # number of overall MSHR misses
system.cpu.icache.overall_mshr_misses::total          754                       # number of overall MSHR misses
system.cpu.icache.ReadReq_mshr_miss_latency::cpu.inst    110171000                       # number of ReadReq MSHR miss cycles
system.cpu.icache.ReadReq_mshr_miss_latency::total    110171000                       # number of ReadReq MSHR miss cycles
system.cpu.icache.demand_mshr_miss_latency::cpu.inst    110171000                       # number of demand (read+write) MSHR miss cycles
system.cpu.icache.demand_mshr_miss_latency::total    110171000                       # number of demand (read+write) MSHR miss cycles
system.cpu.icache.overall_mshr_miss_latency::cpu.inst    110171000                       # number of overall MSHR miss cycles
system.cpu.icache.overall_mshr_miss_latency::total    110171000                       # number of overall MSHR miss cycles
system.cpu.icache.ReadReq_mshr_miss_rate::cpu.inst     0.000013                       # mshr miss rate for ReadReq accesses
system.cpu.icache.ReadReq_mshr_miss_rate::total     0.000013                       # mshr miss rate for ReadReq accesses
system.cpu.icache.demand_mshr_miss_rate::cpu.inst     0.000013                       # mshr miss rate for demand accesses
system.cpu.icache.demand_mshr_miss_rate::total     0.000013                       # mshr miss rate for demand accesses
system.cpu.icache.overall_mshr_miss_rate::cpu.inst     0.000013                       # mshr miss rate for overall accesses
system.cpu.icache.overall_mshr_miss_rate::total     0.000013                       # mshr miss rate for overall accesses
system.cpu.icache.ReadReq_avg_mshr_miss_latency::cpu.inst 146115.384615                       # average ReadReq mshr miss latency
system.cpu.icache.ReadReq_avg_mshr_miss_latency::total 146115.384615                       # average ReadReq mshr miss latency
system.cpu.icache.demand_avg_mshr_miss_latency::cpu.inst 146115.384615                       # average overall mshr miss latency
system.cpu.icache.demand_avg_mshr_miss_latency::total 146115.384615                       # average overall mshr miss latency
system.cpu.icache.overall_avg_mshr_miss_latency::cpu.inst 146115.384615                       # average overall mshr miss latency
system.cpu.icache.overall_avg_mshr_miss_latency::total 146115.384615                       # average overall mshr miss latency
system.cpu.icache.replacements                    288                       # number of replacements
system.cpu.itb_walker_cache.tags.pwrStateResidencyTicks::UNDEFINED  87872124000                       # Cumulative time (in ticks) in various power states
system.cpu.itb_walker_cache.tags.tagsinuse            0                       # Cycle average of tags in use
system.cpu.itb_walker_cache.tags.total_refs            0                       # Total number of references to valid blocks.
system.cpu.itb_walker_cache.tags.sampled_refs            0                       # Sample count of references to valid blocks.
system.cpu.itb_walker_cache.tags.avg_refs          nan                       # Average number of references to valid blocks.
system.cpu.itb_walker_cache.tags.warmup_cycle            0                       # Cycle when the warmup percentage was hit.
system.cpu.itb_walker_cache.tags.tag_accesses            0                       # Number of tag accesses
system.cpu.itb_walker_cache.tags.data_accesses            0                       # Number of data accesses
system.cpu.itb_walker_cache.pwrStateResidencyTicks::UNDEFINED  87872124000                       # Cumulative time (in ticks) in various power states
system.cpu.itb_walker_cache.blocked_cycles::no_mshrs            0                       # number of cycles access was blocked
system.cpu.itb_walker_cache.blocked_cycles::no_targets            0                       # number of cycles access was blocked
system.cpu.itb_walker_cache.blocked::no_mshrs            0                       # number of cycles access was blocked
system.cpu.itb_walker_cache.blocked::no_targets            0                       # number of cycles access was blocked
system.cpu.itb_walker_cache.avg_blocked_cycles::no_mshrs          nan                       # average number of cycles each access was blocked
system.cpu.itb_walker_cache.avg_blocked_cycles::no_targets          nan                       # average number of cycles each access was blocked
system.cpu.itb_walker_cache.replacements            0                       # number of replacements
system.l2.tags.pwrStateResidencyTicks::UNDEFINED  87872124000                       # Cumulative time (in ticks) in various power states
system.l2.tags.tagsinuse                  2043.261055                       # Cycle average of tags in use
system.l2.tags.total_refs                       91462                       # Total number of references to valid blocks.
system.l2.tags.sampled_refs                     35461                       # Sample count of references to valid blocks.
system.l2.tags.avg_refs                      2.579228                       # Average number of references to valid blocks.
system.l2.tags.warmup_cycle                    428500                       # Cycle when the warmup percentage was hit.
system.l2.tags.occ_blocks::writebacks      486.431628                       # Average occupied blocks per requestor
system.l2.tags.occ_blocks::cpu.inst          9.521993                       # Average occupied blocks per requestor
system.l2.tags.occ_blocks::cpu.data       1547.307434                       # Average occupied blocks per requestor
system.l2.tags.occ_percent::writebacks       0.237515                       # Average percentage of cache occupancy
system.l2.tags.occ_percent::cpu.inst         0.004649                       # Average percentage of cache occupancy
system.l2.tags.occ_percent::cpu.data         0.755521                       # Average percentage of cache occupancy
system.l2.tags.occ_percent::total            0.997686                       # Average percentage of cache occupancy
system.l2.tags.occ_task_id_blocks::1024          2048                       # Occupied blocks per task id
system.l2.tags.age_task_id_blocks_1024::0          104                       # Occupied blocks per task id
system.l2.tags.age_task_id_blocks_1024::1           86                       # Occupied blocks per task id
system.l2.tags.age_task_id_blocks_1024::3           35                       # Occupied blocks per task id
system.l2.tags.age_task_id_blocks_1024::4         1823                       # Occupied blocks per task id
system.l2.tags.occ_task_id_percent::1024            1                       # Percentage of cache occupancy per task id
system.l2.tags.tag_accesses                    772453                       # Number of tag accesses
system.l2.tags.data_accesses                   772453                       # Number of data accesses
system.l2.pwrStateResidencyTicks::UNDEFINED  87872124000                       # Cumulative time (in ticks) in various power states
system.l2.WritebackDirty_hits::writebacks        35145                       # number of WritebackDirty hits
system.l2.WritebackDirty_hits::total            35145                       # number of WritebackDirty hits
system.l2.WritebackClean_hits::writebacks          288                       # number of WritebackClean hits
system.l2.WritebackClean_hits::total              288                       # number of WritebackClean hits
system.l2.UpgradeReq_hits::cpu.data             15400                       # number of UpgradeReq hits
system.l2.UpgradeReq_hits::total                15400                       # number of UpgradeReq hits
system.l2.ReadExReq_hits::cpu.data                160                       # number of ReadExReq hits
system.l2.ReadExReq_hits::total                   160                       # number of ReadExReq hits
system.l2.ReadCleanReq_hits::cpu.inst              15                       # number of ReadCleanReq hits
system.l2.ReadCleanReq_hits::total                 15                       # number of ReadCleanReq hits
system.l2.ReadSharedReq_hits::cpu.data          13535                       # number of ReadSharedReq hits
system.l2.ReadSharedReq_hits::total             13535                       # number of ReadSharedReq hits
system.l2.demand_hits::cpu.inst                    15                       # number of demand (read+write) hits
system.l2.demand_hits::cpu.data                 13695                       # number of demand (read+write) hits
system.l2.demand_hits::total                    13710                       # number of demand (read+write) hits
system.l2.overall_hits::cpu.inst                   15                       # number of overall hits
system.l2.overall_hits::cpu.data                13695                       # number of overall hits
system.l2.overall_hits::total                   13710                       # number of overall hits
system.l2.UpgradeReq_misses::cpu.data              13                       # number of UpgradeReq misses
system.l2.UpgradeReq_misses::total                 13                       # number of UpgradeReq misses
system.l2.ReadExReq_misses::cpu.data             6817                       # number of ReadExReq misses
system.l2.ReadExReq_misses::total                6817                       # number of ReadExReq misses
system.l2.ReadCleanReq_misses::cpu.inst           739                       # number of ReadCleanReq misses
system.l2.ReadCleanReq_misses::total              739                       # number of ReadCleanReq misses
system.l2.ReadSharedReq_misses::cpu.data        17835                       # number of ReadSharedReq misses
system.l2.ReadSharedReq_misses::total           17835                       # number of ReadSharedReq misses
system.l2.demand_misses::cpu.inst                 739                       # number of demand (read+write) misses
system.l2.demand_misses::cpu.data               24652                       # number of demand (read+write) misses
system.l2.demand_misses::total                  25391                       # number of demand (read+write) misses
system.l2.overall_misses::cpu.inst                739                       # number of overall misses
system.l2.overall_misses::cpu.data              24652                       # number of overall misses
system.l2.overall_misses::total                 25391                       # number of overall misses
system.l2.ReadExReq_miss_latency::cpu.data    410294000                       # number of ReadExReq miss cycles
system.l2.ReadExReq_miss_latency::total     410294000                       # number of ReadExReq miss cycles
system.l2.ReadCleanReq_miss_latency::cpu.inst    108878000                       # number of ReadCleanReq miss cycles
system.l2.ReadCleanReq_miss_latency::total    108878000                       # number of ReadCleanReq miss cycles
system.l2.ReadSharedReq_miss_latency::cpu.data    713829000                       # number of ReadSharedReq miss cycles
system.l2.ReadSharedReq_miss_latency::total    713829000                       # number of ReadSharedReq miss cycles
system.l2.demand_miss_latency::cpu.inst     108878000                       # number of demand (read+write) miss cycles
system.l2.demand_miss_latency::cpu.data    1124123000                       # number of demand (read+write) miss cycles
system.l2.demand_miss_latency::total       1233001000                       # number of demand (read+write) miss cycles
system.l2.overall_miss_latency::cpu.inst    108878000                       # number of overall miss cycles
system.l2.overall_miss_latency::cpu.data   1124123000                       # number of overall miss cycles
system.l2.overall_miss_latency::total      1233001000                       # number of overall miss cycles
system.l2.WritebackDirty_accesses::writebacks        35145                       # number of WritebackDirty accesses(hits+misses)
system.l2.WritebackDirty_accesses::total        35145                       # number of WritebackDirty accesses(hits+misses)
system.l2.WritebackClean_accesses::writebacks          288                       # number of WritebackClean accesses(hits+misses)
system.l2.WritebackClean_accesses::total          288                       # number of WritebackClean accesses(hits+misses)
system.l2.UpgradeReq_accesses::cpu.data         15413                       # number of UpgradeReq accesses(hits+misses)
system.l2.UpgradeReq_accesses::total            15413                       # number of UpgradeReq accesses(hits+misses)
system.l2.ReadExReq_accesses::cpu.data           6977                       # number of ReadExReq accesses(hits+misses)
system.l2.ReadExReq_accesses::total              6977                       # number of ReadExReq accesses(hits+misses)
system.l2.ReadCleanReq_accesses::cpu.inst          754                       # number of ReadCleanReq accesses(hits+misses)
system.l2.ReadCleanReq_accesses::total            754                       # number of ReadCleanReq accesses(hits+misses)
system.l2.ReadSharedReq_accesses::cpu.data        31370                       # number of ReadSharedReq accesses(hits+misses)
system.l2.ReadSharedReq_accesses::total         31370                       # number of ReadSharedReq accesses(hits+misses)
system.l2.demand_accesses::cpu.inst               754                       # number of demand (read+write) accesses
system.l2.demand_accesses::cpu.data             38347                       # number of demand (read+write) accesses
system.l2.demand_accesses::total                39101                       # number of demand (read+write) accesses
system.l2.overall_accesses::cpu.inst              754                       # number of overall (read+write) accesses
system.l2.overall_accesses::cpu.data            38347                       # number of overall (read+write) accesses
system.l2.overall_accesses::total               39101                       # number of overall (read+write) accesses
system.l2.UpgradeReq_miss_rate::cpu.data     0.000843                       # miss rate for UpgradeReq accesses
system.l2.UpgradeReq_miss_rate::total        0.000843                       # miss rate for UpgradeReq accesses
system.l2.ReadExReq_miss_rate::cpu.data      0.977068                       # miss rate for ReadExReq accesses
system.l2.ReadExReq_miss_rate::total         0.977068                       # miss rate for ReadExReq accesses
system.l2.ReadCleanReq_miss_rate::cpu.inst     0.980106                       # miss rate for ReadCleanReq accesses
system.l2.ReadCleanReq_miss_rate::total      0.980106                       # miss rate for ReadCleanReq accesses
system.l2.ReadSharedReq_miss_rate::cpu.data     0.568537                       # miss rate for ReadSharedReq accesses
system.l2.ReadSharedReq_miss_rate::total     0.568537                       # miss rate for ReadSharedReq accesses
system.l2.demand_miss_rate::cpu.inst         0.980106                       # miss rate for demand accesses
system.l2.demand_miss_rate::cpu.data         0.642866                       # miss rate for demand accesses
system.l2.demand_miss_rate::total            0.649370                       # miss rate for demand accesses
system.l2.overall_miss_rate::cpu.inst        0.980106                       # miss rate for overall accesses
system.l2.overall_miss_rate::cpu.data        0.642866                       # miss rate for overall accesses
system.l2.overall_miss_rate::total           0.649370                       # miss rate for overall accesses
system.l2.ReadExReq_avg_miss_latency::cpu.data 60186.885727                       # average ReadExReq miss latency
system.l2.ReadExReq_avg_miss_latency::total 60186.885727                       # average ReadExReq miss latency
system.l2.ReadCleanReq_avg_miss_latency::cpu.inst 147331.529093                       # average ReadCleanReq miss latency
system.l2.ReadCleanReq_avg_miss_latency::total 147331.529093                       # average ReadCleanReq miss latency
system.l2.ReadSharedReq_avg_miss_latency::cpu.data 40024.053827                       # average ReadSharedReq miss latency
system.l2.ReadSharedReq_avg_miss_latency::total 40024.053827                       # average ReadSharedReq miss latency
system.l2.demand_avg_miss_latency::cpu.inst 147331.529093                       # average overall miss latency
system.l2.demand_avg_miss_latency::cpu.data 45599.667370                       # average overall miss latency
system.l2.demand_avg_miss_latency::total 48560.552952                       # average overall miss latency
system.l2.overall_avg_miss_latency::cpu.inst 147331.529093                       # average overall miss latency
system.l2.overall_avg_miss_latency::cpu.data 45599.667370                       # average overall miss latency
system.l2.overall_avg_miss_latency::total 48560.552952                       # average overall miss latency
system.l2.blocked_cycles::no_mshrs                  0                       # number of cycles access was blocked
system.l2.blocked_cycles::no_targets                0                       # number of cycles access was blocked
system.l2.blocked::no_mshrs                         0                       # number of cycles access was blocked
system.l2.blocked::no_targets                       0                       # number of cycles access was blocked
system.l2.avg_blocked_cycles::no_mshrs            nan                       # average number of cycles each access was blocked
system.l2.avg_blocked_cycles::no_targets          nan                       # average number of cycles each access was blocked
system.l2.writebacks::writebacks                21577                       # number of writebacks
system.l2.writebacks::total                     21577                       # number of writebacks
system.l2.CleanEvict_mshr_misses::writebacks          649                       # number of CleanEvict MSHR misses
system.l2.CleanEvict_mshr_misses::total           649                       # number of CleanEvict MSHR misses
system.l2.UpgradeReq_mshr_misses::cpu.data           13                       # number of UpgradeReq MSHR misses
system.l2.UpgradeReq_mshr_misses::total            13                       # number of UpgradeReq MSHR misses
system.l2.ReadExReq_mshr_misses::cpu.data         6817                       # number of ReadExReq MSHR misses
system.l2.ReadExReq_mshr_misses::total           6817                       # number of ReadExReq MSHR misses
system.l2.ReadCleanReq_mshr_misses::cpu.inst          739                       # number of ReadCleanReq MSHR misses
system.l2.ReadCleanReq_mshr_misses::total          739                       # number of ReadCleanReq MSHR misses
system.l2.ReadSharedReq_mshr_misses::cpu.data        17835                       # number of ReadSharedReq MSHR misses
system.l2.ReadSharedReq_mshr_misses::total        17835                       # number of ReadSharedReq MSHR misses
system.l2.demand_mshr_misses::cpu.inst            739                       # number of demand (read+write) MSHR misses
system.l2.demand_mshr_misses::cpu.data          24652                       # number of demand (read+write) MSHR misses
system.l2.demand_mshr_misses::total             25391                       # number of demand (read+write) MSHR misses
system.l2.overall_mshr_misses::cpu.inst           739                       # number of overall MSHR misses
system.l2.overall_mshr_misses::cpu.data         24652                       # number of overall MSHR misses
system.l2.overall_mshr_misses::total            25391                       # number of overall MSHR misses
system.l2.UpgradeReq_mshr_miss_latency::cpu.data       279500                       # number of UpgradeReq MSHR miss cycles
system.l2.UpgradeReq_mshr_miss_latency::total       279500                       # number of UpgradeReq MSHR miss cycles
system.l2.ReadExReq_mshr_miss_latency::cpu.data    342124000                       # number of ReadExReq MSHR miss cycles
system.l2.ReadExReq_mshr_miss_latency::total    342124000                       # number of ReadExReq MSHR miss cycles
system.l2.ReadCleanReq_mshr_miss_latency::cpu.inst    101488000                       # number of ReadCleanReq MSHR miss cycles
system.l2.ReadCleanReq_mshr_miss_latency::total    101488000                       # number of ReadCleanReq MSHR miss cycles
system.l2.ReadSharedReq_mshr_miss_latency::cpu.data    535479000                       # number of ReadSharedReq MSHR miss cycles
system.l2.ReadSharedReq_mshr_miss_latency::total    535479000                       # number of ReadSharedReq MSHR miss cycles
system.l2.demand_mshr_miss_latency::cpu.inst    101488000                       # number of demand (read+write) MSHR miss cycles
system.l2.demand_mshr_miss_latency::cpu.data    877603000                       # number of demand (read+write) MSHR miss cycles
system.l2.demand_mshr_miss_latency::total    979091000                       # number of demand (read+write) MSHR miss cycles
system.l2.overall_mshr_miss_latency::cpu.inst    101488000                       # number of overall MSHR miss cycles
system.l2.overall_mshr_miss_latency::cpu.data    877603000                       # number of overall MSHR miss cycles
system.l2.overall_mshr_miss_latency::total    979091000                       # number of overall MSHR miss cycles
system.l2.CleanEvict_mshr_miss_rate::writebacks          inf                       # mshr miss rate for CleanEvict accesses
system.l2.CleanEvict_mshr_miss_rate::total          inf                       # mshr miss rate for CleanEvict accesses
system.l2.UpgradeReq_mshr_miss_rate::cpu.data     0.000843                       # mshr miss rate for UpgradeReq accesses
system.l2.UpgradeReq_mshr_miss_rate::total     0.000843                       # mshr miss rate for UpgradeReq accesses
system.l2.ReadExReq_mshr_miss_rate::cpu.data     0.977068                       # mshr miss rate for ReadExReq accesses
system.l2.ReadExReq_mshr_miss_rate::total     0.977068                       # mshr miss rate for ReadExReq accesses
system.l2.ReadCleanReq_mshr_miss_rate::cpu.inst     0.980106                       # mshr miss rate for ReadCleanReq accesses
system.l2.ReadCleanReq_mshr_miss_rate::total     0.980106                       # mshr miss rate for ReadCleanReq accesses
system.l2.ReadSharedReq_mshr_miss_rate::cpu.data     0.568537                       # mshr miss rate for ReadSharedReq accesses
system.l2.ReadSharedReq_mshr_miss_rate::total     0.568537                       # mshr miss rate for ReadSharedReq accesses
system.l2.demand_mshr_miss_rate::cpu.inst     0.980106                       # mshr miss rate for demand accesses
system.l2.demand_mshr_miss_rate::cpu.data     0.642866                       # mshr miss rate for demand accesses
system.l2.demand_mshr_miss_rate::total       0.649370                       # mshr miss rate for demand accesses
system.l2.overall_mshr_miss_rate::cpu.inst     0.980106                       # mshr miss rate for overall accesses
system.l2.overall_mshr_miss_rate::cpu.data     0.642866                       # mshr miss rate for overall accesses
system.l2.overall_mshr_miss_rate::total      0.649370                       # mshr miss rate for overall accesses
system.l2.UpgradeReq_avg_mshr_miss_latency::cpu.data        21500                       # average UpgradeReq mshr miss latency
system.l2.UpgradeReq_avg_mshr_miss_latency::total        21500                       # average UpgradeReq mshr miss latency
system.l2.ReadExReq_avg_mshr_miss_latency::cpu.data 50186.885727                       # average ReadExReq mshr miss latency
system.l2.ReadExReq_avg_mshr_miss_latency::total 50186.885727                       # average ReadExReq mshr miss latency
system.l2.ReadCleanReq_avg_mshr_miss_latency::cpu.inst 137331.529093                       # average ReadCleanReq mshr miss latency
system.l2.ReadCleanReq_avg_mshr_miss_latency::total 137331.529093                       # average ReadCleanReq mshr miss latency
system.l2.ReadSharedReq_avg_mshr_miss_latency::cpu.data 30024.053827                       # average ReadSharedReq mshr miss latency
system.l2.ReadSharedReq_avg_mshr_miss_latency::total 30024.053827                       # average ReadSharedReq mshr miss latency
system.l2.demand_avg_mshr_miss_latency::cpu.inst 137331.529093                       # average overall mshr miss latency
system.l2.demand_avg_mshr_miss_latency::cpu.data 35599.667370                       # average overall mshr miss latency
system.l2.demand_avg_mshr_miss_latency::total 38560.552952                       # average overall mshr miss latency
system.l2.overall_avg_mshr_miss_latency::cpu.inst 137331.529093                       # average overall mshr miss latency
system.l2.overall_avg_mshr_miss_latency::cpu.data 35599.667370                       # average overall mshr miss latency
system.l2.overall_avg_mshr_miss_latency::total 38560.552952                       # average overall mshr miss latency
system.l2.replacements                          33413                       # number of replacements
system.l3.tags.pwrStateResidencyTicks::UNDEFINED  87872124000                       # Cumulative time (in ticks) in various power states
system.l3.tags.tagsinuse                  7595.360075                       # Cycle average of tags in use
system.l3.tags.total_refs                       48609                       # Total number of references to valid blocks.
system.l3.tags.sampled_refs                      9148                       # Sample count of references to valid blocks.
system.l3.tags.avg_refs                      5.313620                       # Average number of references to valid blocks.
system.l3.tags.warmup_cycle                    418000                       # Cycle when the warmup percentage was hit.
system.l3.tags.occ_blocks::writebacks      132.454974                       # Average occupied blocks per requestor
system.l3.tags.occ_blocks::cpu.inst        424.659748                       # Average occupied blocks per requestor
system.l3.tags.occ_blocks::cpu.data       7038.245352                       # Average occupied blocks per requestor
system.l3.tags.occ_percent::writebacks       0.016169                       # Average percentage of cache occupancy
system.l3.tags.occ_percent::cpu.inst         0.051838                       # Average percentage of cache occupancy
system.l3.tags.occ_percent::cpu.data         0.859161                       # Average percentage of cache occupancy
system.l3.tags.occ_percent::total            0.927168                       # Average percentage of cache occupancy
system.l3.tags.occ_task_id_blocks::1024          8035                       # Occupied blocks per task id
system.l3.tags.age_task_id_blocks_1024::0           46                       # Occupied blocks per task id
system.l3.tags.age_task_id_blocks_1024::1           26                       # Occupied blocks per task id
system.l3.tags.age_task_id_blocks_1024::3            2                       # Occupied blocks per task id
system.l3.tags.age_task_id_blocks_1024::4         7961                       # Occupied blocks per task id
system.l3.tags.occ_task_id_percent::1024     0.980835                       # Percentage of cache occupancy per task id
system.l3.tags.tag_accesses                    786924                       # Number of tag accesses
system.l3.tags.data_accesses                   786924                       # Number of data accesses
system.l3.pwrStateResidencyTicks::UNDEFINED  87872124000                       # Cumulative time (in ticks) in various power states
system.l3.WritebackDirty_hits::writebacks        21577                       # number of WritebackDirty hits
system.l3.WritebackDirty_hits::total            21577                       # number of WritebackDirty hits
system.l3.UpgradeReq_hits::cpu.data                13                       # number of UpgradeReq hits
system.l3.UpgradeReq_hits::total                   13                       # number of UpgradeReq hits
system.l3.ReadExReq_hits::cpu.data                105                       # number of ReadExReq hits
system.l3.ReadExReq_hits::total                   105                       # number of ReadExReq hits
system.l3.ReadSharedReq_hits::cpu.inst              5                       # number of ReadSharedReq hits
system.l3.ReadSharedReq_hits::cpu.data          16531                       # number of ReadSharedReq hits
system.l3.ReadSharedReq_hits::total             16536                       # number of ReadSharedReq hits
system.l3.demand_hits::cpu.inst                     5                       # number of demand (read+write) hits
system.l3.demand_hits::cpu.data                 16636                       # number of demand (read+write) hits
system.l3.demand_hits::total                    16641                       # number of demand (read+write) hits
system.l3.overall_hits::cpu.inst                    5                       # number of overall hits
system.l3.overall_hits::cpu.data                16636                       # number of overall hits
system.l3.overall_hits::total                   16641                       # number of overall hits
system.l3.ReadExReq_misses::cpu.data             6712                       # number of ReadExReq misses
system.l3.ReadExReq_misses::total                6712                       # number of ReadExReq misses
system.l3.ReadSharedReq_misses::cpu.inst          734                       # number of ReadSharedReq misses
system.l3.ReadSharedReq_misses::cpu.data         1304                       # number of ReadSharedReq misses
system.l3.ReadSharedReq_misses::total            2038                       # number of ReadSharedReq misses
system.l3.demand_misses::cpu.inst                 734                       # number of demand (read+write) misses
system.l3.demand_misses::cpu.data                8016                       # number of demand (read+write) misses
system.l3.demand_misses::total                   8750                       # number of demand (read+write) misses
system.l3.overall_misses::cpu.inst                734                       # number of overall misses
system.l3.overall_misses::cpu.data               8016                       # number of overall misses
system.l3.overall_misses::total                  8750                       # number of overall misses
system.l3.ReadExReq_miss_latency::cpu.data    266034500                       # number of ReadExReq miss cycles
system.l3.ReadExReq_miss_latency::total     266034500                       # number of ReadExReq miss cycles
system.l3.ReadSharedReq_miss_latency::cpu.inst     93306500                       # number of ReadSharedReq miss cycles
system.l3.ReadSharedReq_miss_latency::cpu.data    165718500                       # number of ReadSharedReq miss cycles
system.l3.ReadSharedReq_miss_latency::total    259025000                       # number of ReadSharedReq miss cycles
system.l3.demand_miss_latency::cpu.inst      93306500                       # number of demand (read+write) miss cycles
system.l3.demand_miss_latency::cpu.data     431753000                       # number of demand (read+write) miss cycles
system.l3.demand_miss_latency::total        525059500                       # number of demand (read+write) miss cycles
system.l3.overall_miss_latency::cpu.inst     93306500                       # number of overall miss cycles
system.l3.overall_miss_latency::cpu.data    431753000                       # number of overall miss cycles
system.l3.overall_miss_latency::total       525059500                       # number of overall miss cycles
system.l3.WritebackDirty_accesses::writebacks        21577                       # number of WritebackDirty accesses(hits+misses)
system.l3.WritebackDirty_accesses::total        21577                       # number of WritebackDirty accesses(hits+misses)
system.l3.UpgradeReq_accesses::cpu.data            13                       # number of UpgradeReq accesses(hits+misses)
system.l3.UpgradeReq_accesses::total               13                       # number of UpgradeReq accesses(hits+misses)
system.l3.ReadExReq_accesses::cpu.data           6817                       # number of ReadExReq accesses(hits+misses)
system.l3.ReadExReq_accesses::total              6817                       # number of ReadExReq accesses(hits+misses)
system.l3.ReadSharedReq_accesses::cpu.inst          739                       # number of ReadSharedReq accesses(hits+misses)
system.l3.ReadSharedReq_accesses::cpu.data        17835                       # number of ReadSharedReq accesses(hits+misses)
system.l3.ReadSharedReq_accesses::total         18574                       # number of ReadSharedReq accesses(hits+misses)
system.l3.demand_accesses::cpu.inst               739                       # number of demand (read+write) accesses
system.l3.demand_accesses::cpu.data             24652                       # number of demand (read+write) accesses
system.l3.demand_accesses::total                25391                       # number of demand (read+write) accesses
system.l3.overall_accesses::cpu.inst              739                       # number of overall (read+write) accesses
system.l3.overall_accesses::cpu.data            24652                       # number of overall (read+write) accesses
system.l3.overall_accesses::total               25391                       # number of overall (read+write) accesses
system.l3.ReadExReq_miss_rate::cpu.data      0.984597                       # miss rate for ReadExReq accesses
system.l3.ReadExReq_miss_rate::total         0.984597                       # miss rate for ReadExReq accesses
system.l3.ReadSharedReq_miss_rate::cpu.inst     0.993234                       # miss rate for ReadSharedReq accesses
system.l3.ReadSharedReq_miss_rate::cpu.data     0.073115                       # miss rate for ReadSharedReq accesses
system.l3.ReadSharedReq_miss_rate::total     0.109723                       # miss rate for ReadSharedReq accesses
system.l3.demand_miss_rate::cpu.inst         0.993234                       # miss rate for demand accesses
system.l3.demand_miss_rate::cpu.data         0.325166                       # miss rate for demand accesses
system.l3.demand_miss_rate::total            0.344610                       # miss rate for demand accesses
system.l3.overall_miss_rate::cpu.inst        0.993234                       # miss rate for overall accesses
system.l3.overall_miss_rate::cpu.data        0.325166                       # miss rate for overall accesses
system.l3.overall_miss_rate::total           0.344610                       # miss rate for overall accesses
system.l3.ReadExReq_avg_miss_latency::cpu.data 39635.652563                       # average ReadExReq miss latency
system.l3.ReadExReq_avg_miss_latency::total 39635.652563                       # average ReadExReq miss latency
system.l3.ReadSharedReq_avg_miss_latency::cpu.inst 127120.572207                       # average ReadSharedReq miss latency
system.l3.ReadSharedReq_avg_miss_latency::cpu.data 127084.739264                       # average ReadSharedReq miss latency
system.l3.ReadSharedReq_avg_miss_latency::total 127097.644750                       # average ReadSharedReq miss latency
system.l3.demand_avg_miss_latency::cpu.inst 127120.572207                       # average overall miss latency
system.l3.demand_avg_miss_latency::cpu.data 53861.402196                       # average overall miss latency
system.l3.demand_avg_miss_latency::total 60006.800000                       # average overall miss latency
system.l3.overall_avg_miss_latency::cpu.inst 127120.572207                       # average overall miss latency
system.l3.overall_avg_miss_latency::cpu.data 53861.402196                       # average overall miss latency
system.l3.overall_avg_miss_latency::total 60006.800000                       # average overall miss latency
system.l3.blocked_cycles::no_mshrs                  0                       # number of cycles access was blocked
system.l3.blocked_cycles::no_targets                0                       # number of cycles access was blocked
system.l3.blocked::no_mshrs                         0                       # number of cycles access was blocked
system.l3.blocked::no_targets                       0                       # number of cycles access was blocked
system.l3.avg_blocked_cycles::no_mshrs            nan                       # average number of cycles each access was blocked
system.l3.avg_blocked_cycles::no_targets          nan                       # average number of cycles each access was blocked
system.l3.writebacks::writebacks                  260                       # number of writebacks
system.l3.writebacks::total                       260                       # number of writebacks
system.l3.CleanEvict_mshr_misses::writebacks            2                       # number of CleanEvict MSHR misses
system.l3.CleanEvict_mshr_misses::total             2                       # number of CleanEvict MSHR misses
system.l3.ReadExReq_mshr_misses::cpu.data         6712                       # number of ReadExReq MSHR misses
system.l3.ReadExReq_mshr_misses::total           6712                       # number of ReadExReq MSHR misses
system.l3.ReadSharedReq_mshr_misses::cpu.inst          734                       # number of ReadSharedReq MSHR misses
system.l3.ReadSharedReq_mshr_misses::cpu.data         1304                       # number of ReadSharedReq MSHR misses
system.l3.ReadSharedReq_mshr_misses::total         2038                       # number of ReadSharedReq MSHR misses
system.l3.demand_mshr_misses::cpu.inst            734                       # number of demand (read+write) MSHR misses
system.l3.demand_mshr_misses::cpu.data           8016                       # number of demand (read+write) MSHR misses
system.l3.demand_mshr_misses::total              8750                       # number of demand (read+write) MSHR misses
system.l3.overall_mshr_misses::cpu.inst           734                       # number of overall MSHR misses
system.l3.overall_mshr_misses::cpu.data          8016                       # number of overall MSHR misses
system.l3.overall_mshr_misses::total             8750                       # number of overall MSHR misses
system.l3.ReadExReq_mshr_miss_latency::cpu.data    198914500                       # number of ReadExReq MSHR miss cycles
system.l3.ReadExReq_mshr_miss_latency::total    198914500                       # number of ReadExReq MSHR miss cycles
system.l3.ReadSharedReq_mshr_miss_latency::cpu.inst     85966500                       # number of ReadSharedReq MSHR miss cycles
system.l3.ReadSharedReq_mshr_miss_latency::cpu.data    152678500                       # number of ReadSharedReq MSHR miss cycles
system.l3.ReadSharedReq_mshr_miss_latency::total    238645000                       # number of ReadSharedReq MSHR miss cycles
system.l3.demand_mshr_miss_latency::cpu.inst     85966500                       # number of demand (read+write) MSHR miss cycles
system.l3.demand_mshr_miss_latency::cpu.data    351593000                       # number of demand (read+write) MSHR miss cycles
system.l3.demand_mshr_miss_latency::total    437559500                       # number of demand (read+write) MSHR miss cycles
system.l3.overall_mshr_miss_latency::cpu.inst     85966500                       # number of overall MSHR miss cycles
system.l3.overall_mshr_miss_latency::cpu.data    351593000                       # number of overall MSHR miss cycles
system.l3.overall_mshr_miss_latency::total    437559500                       # number of overall MSHR miss cycles
system.l3.CleanEvict_mshr_miss_rate::writebacks          inf                       # mshr miss rate for CleanEvict accesses
system.l3.CleanEvict_mshr_miss_rate::total          inf                       # mshr miss rate for CleanEvict accesses
system.l3.ReadExReq_mshr_miss_rate::cpu.data     0.984597                       # mshr miss rate for ReadExReq accesses
system.l3.ReadExReq_mshr_miss_rate::total     0.984597                       # mshr miss rate for ReadExReq accesses
system.l3.ReadSharedReq_mshr_miss_rate::cpu.inst     0.993234                       # mshr miss rate for ReadSharedReq accesses
system.l3.ReadSharedReq_mshr_miss_rate::cpu.data     0.073115                       # mshr miss rate for ReadSharedReq accesses
system.l3.ReadSharedReq_mshr_miss_rate::total     0.109723                       # mshr miss rate for ReadSharedReq accesses
system.l3.demand_mshr_miss_rate::cpu.inst     0.993234                       # mshr miss rate for demand accesses
system.l3.demand_mshr_miss_rate::cpu.data     0.325166                       # mshr miss rate for demand accesses
system.l3.demand_mshr_miss_rate::total       0.344610                       # mshr miss rate for demand accesses
system.l3.overall_mshr_miss_rate::cpu.inst     0.993234                       # mshr miss rate for overall accesses
system.l3.overall_mshr_miss_rate::cpu.data     0.325166                       # mshr miss rate for overall accesses
system.l3.overall_mshr_miss_rate::total      0.344610                       # mshr miss rate for overall accesses
system.l3.ReadExReq_avg_mshr_miss_latency::cpu.data 29635.652563                       # average ReadExReq mshr miss latency
system.l3.ReadExReq_avg_mshr_miss_latency::total 29635.652563                       # average ReadExReq mshr miss latency
system.l3.ReadSharedReq_avg_mshr_miss_latency::cpu.inst 117120.572207                       # average ReadSharedReq mshr miss latency
system.l3.ReadSharedReq_avg_mshr_miss_latency::cpu.data 117084.739264                       # average ReadSharedReq mshr miss latency
system.l3.ReadSharedReq_avg_mshr_miss_latency::total 117097.644750                       # average ReadSharedReq mshr miss latency
system.l3.demand_avg_mshr_miss_latency::cpu.inst 117120.572207                       # average overall mshr miss latency
system.l3.demand_avg_mshr_miss_latency::cpu.data 43861.402196                       # average overall mshr miss latency
system.l3.demand_avg_mshr_miss_latency::total 50006.800000                       # average overall mshr miss latency
system.l3.overall_avg_mshr_miss_latency::cpu.inst 117120.572207                       # average overall mshr miss latency
system.l3.overall_avg_mshr_miss_latency::cpu.data 43861.402196                       # average overall mshr miss latency
system.l3.overall_avg_mshr_miss_latency::total 50006.800000                       # average overall mshr miss latency
system.l3.replacements                           1113                       # number of replacements
system.membus.snoop_filter.tot_requests          9121                       # Total number of requests made to the snoop filter.
system.membus.snoop_filter.hit_single_requests          371                       # Number of requests hitting in the snoop filter with a single holder of the requested data.
system.membus.snoop_filter.hit_multi_requests            0                       # Number of requests hitting in the snoop filter with multiple (>1) holders of the requested data.
system.membus.snoop_filter.tot_snoops               0                       # Total number of snoops made to the snoop filter.
system.membus.snoop_filter.hit_single_snoops            0                       # Number of snoops hitting in the snoop filter with a single holder of the requested data.
system.membus.snoop_filter.hit_multi_snoops            0                       # Number of snoops hitting in the snoop filter with multiple (>1) holders of the requested data.
system.membus.pwrStateResidencyTicks::UNDEFINED  87872124000                       # Cumulative time (in ticks) in various power states
system.membus.trans_dist::ReadResp               2038                       # Transaction distribution
system.membus.trans_dist::WritebackDirty          260                       # Transaction distribution
system.membus.trans_dist::CleanEvict               93                       # Transaction distribution
system.membus.trans_dist::ReadExReq              6712                       # Transaction distribution
system.membus.trans_dist::ReadExResp             6712                       # Transaction distribution
system.membus.trans_dist::ReadSharedReq          2038                       # Transaction distribution
system.membus.pkt_count_system.l3.mem_side::system.mem_ctrls.port        17853                       # Packet count per connected master and slave (bytes)
system.membus.pkt_count_system.l3.mem_side::total        17853                       # Packet count per connected master and slave (bytes)
system.membus.pkt_count::total                  17853                       # Packet count per connected master and slave (bytes)
system.membus.pkt_size_system.l3.mem_side::system.mem_ctrls.port       576640                       # Cumulative packet size per connected master and slave (bytes)
system.membus.pkt_size_system.l3.mem_side::total       576640                       # Cumulative packet size per connected master and slave (bytes)
system.membus.pkt_size::total                  576640                       # Cumulative packet size per connected master and slave (bytes)
system.membus.snoops                                0                       # Total snoops (count)
system.membus.snoopTraffic                          0                       # Total snoop traffic (bytes)
system.membus.snoop_fanout::samples              8750                       # Request fanout histogram
system.membus.snoop_fanout::mean                    0                       # Request fanout histogram
system.membus.snoop_fanout::stdev                   0                       # Request fanout histogram
system.membus.snoop_fanout::underflows              0      0.00%      0.00% # Request fanout histogram
system.membus.snoop_fanout::0                    8750    100.00%    100.00% # Request fanout histogram
system.membus.snoop_fanout::1                       0      0.00%    100.00% # Request fanout histogram
system.membus.snoop_fanout::overflows               0      0.00%    100.00% # Request fanout histogram
system.membus.snoop_fanout::min_value               0                       # Request fanout histogram
system.membus.snoop_fanout::max_value               0                       # Request fanout histogram
system.membus.snoop_fanout::total                8750                       # Request fanout histogram
system.membus.reqLayer2.occupancy            10175000                       # Layer occupancy (ticks)
system.membus.reqLayer2.utilization               0.0                       # Layer utilization (%)
system.membus.respLayer1.occupancy           43764000                       # Layer occupancy (ticks)
system.membus.respLayer1.utilization              0.0                       # Layer utilization (%)
system.tol2bus.snoop_filter.tot_requests        92125                       # Total number of requests made to the snoop filter.
system.tol2bus.snoop_filter.hit_single_requests        53024                       # Number of requests hitting in the snoop filter with a single holder of the requested data.
system.tol2bus.snoop_filter.hit_multi_requests            1                       # Number of requests hitting in the snoop filter with multiple (>1) holders of the requested data.
system.tol2bus.snoop_filter.tot_snoops          11909                       # Total number of snoops made to the snoop filter.
system.tol2bus.snoop_filter.hit_single_snoops        11909                       # Number of snoops hitting in the snoop filter with a single holder of the requested data.
system.tol2bus.snoop_filter.hit_multi_snoops            0                       # Number of snoops hitting in the snoop filter with multiple (>1) holders of the requested data.
system.tol2bus.pwrStateResidencyTicks::UNDEFINED  87872124000                       # Cumulative time (in ticks) in various power states
system.tol2bus.trans_dist::ReadResp             32124                       # Transaction distribution
system.tol2bus.trans_dist::WritebackDirty        56722                       # Transaction distribution
system.tol2bus.trans_dist::WritebackClean          288                       # Transaction distribution
system.tol2bus.trans_dist::CleanEvict           14776                       # Transaction distribution
system.tol2bus.trans_dist::UpgradeReq           15413                       # Transaction distribution
system.tol2bus.trans_dist::UpgradeResp          15413                       # Transaction distribution
system.tol2bus.trans_dist::ReadExReq             6977                       # Transaction distribution
system.tol2bus.trans_dist::ReadExResp            6977                       # Transaction distribution
system.tol2bus.trans_dist::ReadCleanReq           754                       # Transaction distribution
system.tol2bus.trans_dist::ReadSharedReq        31370                       # Transaction distribution
system.tol2bus.pkt_count_system.cpu.icache.mem_side::system.l2.cpu_side         1796                       # Packet count per connected master and slave (bytes)
system.tol2bus.pkt_count_system.cpu.dcache.mem_side::system.l2.cpu_side       144843                       # Packet count per connected master and slave (bytes)
system.tol2bus.pkt_count::total                146639                       # Packet count per connected master and slave (bytes)
system.tol2bus.pkt_size_system.cpu.icache.mem_side::system.l2.cpu_side        66688                       # Cumulative packet size per connected master and slave (bytes)
system.tol2bus.pkt_size_system.cpu.dcache.mem_side::system.l2.cpu_side      4703488                       # Cumulative packet size per connected master and slave (bytes)
system.tol2bus.pkt_size::total                4770176                       # Cumulative packet size per connected master and slave (bytes)
system.tol2bus.snoops                           34175                       # Total snoops (count)
system.tol2bus.snoopTraffic                   1380928                       # Total snoop traffic (bytes)
system.tol2bus.snoop_fanout::samples            88689                       # Request fanout histogram
system.tol2bus.snoop_fanout::mean            0.134289                       # Request fanout histogram
system.tol2bus.snoop_fanout::stdev           0.340965                       # Request fanout histogram
system.tol2bus.snoop_fanout::underflows             0      0.00%      0.00% # Request fanout histogram
system.tol2bus.snoop_fanout::0                  76779     86.57%     86.57% # Request fanout histogram
system.tol2bus.snoop_fanout::1                  11910     13.43%    100.00% # Request fanout histogram
system.tol2bus.snoop_fanout::2                      0      0.00%    100.00% # Request fanout histogram
system.tol2bus.snoop_fanout::3                      0      0.00%    100.00% # Request fanout histogram
system.tol2bus.snoop_fanout::4                      0      0.00%    100.00% # Request fanout histogram
system.tol2bus.snoop_fanout::overflows              0      0.00%    100.00% # Request fanout histogram
system.tol2bus.snoop_fanout::min_value              0                       # Request fanout histogram
system.tol2bus.snoop_fanout::max_value              1                       # Request fanout histogram
system.tol2bus.snoop_fanout::total              88689                       # Request fanout histogram
system.tol2bus.reqLayer0.occupancy           81495500                       # Layer occupancy (ticks)
system.tol2bus.reqLayer0.utilization              0.1                       # Layer utilization (%)
system.tol2bus.respLayer0.occupancy           1131000                       # Layer occupancy (ticks)
system.tol2bus.respLayer0.utilization             0.0                       # Layer utilization (%)
system.tol2bus.respLayer1.occupancy          65227000                       # Layer occupancy (ticks)
system.tol2bus.respLayer1.utilization             0.1                       # Layer utilization (%)
system.tol3bus.snoop_filter.tot_requests        48611                       # Total number of requests made to the snoop filter.
system.tol3bus.snoop_filter.hit_single_requests        23220                       # Number of requests hitting in the snoop filter with a single holder of the requested data.
system.tol3bus.snoop_filter.hit_multi_requests            0                       # Number of requests hitting in the snoop filter with multiple (>1) holders of the requested data.
system.tol3bus.snoop_filter.tot_snoops            762                       # Total number of snoops made to the snoop filter.
system.tol3bus.snoop_filter.hit_single_snoops          762                       # Number of snoops hitting in the snoop filter with a single holder of the requested data.
system.tol3bus.snoop_filter.hit_multi_snoops            0                       # Number of snoops hitting in the snoop filter with multiple (>1) holders of the requested data.
system.tol3bus.pwrStateResidencyTicks::UNDEFINED  87872124000                       # Cumulative time (in ticks) in various power states
system.tol3bus.trans_dist::ReadResp             18574                       # Transaction distribution
system.tol3bus.trans_dist::WritebackDirty        21837                       # Transaction distribution
system.tol3bus.trans_dist::CleanEvict            2483                       # Transaction distribution
system.tol3bus.trans_dist::UpgradeReq              13                       # Transaction distribution
system.tol3bus.trans_dist::UpgradeResp             13                       # Transaction distribution
system.tol3bus.trans_dist::ReadExReq             6817                       # Transaction distribution
system.tol3bus.trans_dist::ReadExResp            6817                       # Transaction distribution
system.tol3bus.trans_dist::ReadSharedReq        18574                       # Transaction distribution
system.tol3bus.pkt_count_system.l2.mem_side::system.l3.cpu_side        74015                       # Packet count per connected master and slave (bytes)
system.tol3bus.pkt_size_system.l2.mem_side::system.l3.cpu_side      3005952                       # Cumulative packet size per connected master and slave (bytes)
system.tol3bus.snoops                            1113                       # Total snoops (count)
system.tol3bus.snoopTraffic                     16640                       # Total snoop traffic (bytes)
system.tol3bus.snoop_fanout::samples            26517                       # Request fanout histogram
system.tol3bus.snoop_fanout::mean            0.028736                       # Request fanout histogram
system.tol3bus.snoop_fanout::stdev           0.167068                       # Request fanout histogram
system.tol3bus.snoop_fanout::underflows             0      0.00%      0.00% # Request fanout histogram
system.tol3bus.snoop_fanout::0                  25755     97.13%     97.13% # Request fanout histogram
system.tol3bus.snoop_fanout::1                    762      2.87%    100.00% # Request fanout histogram
system.tol3bus.snoop_fanout::overflows              0      0.00%    100.00% # Request fanout histogram
system.tol3bus.snoop_fanout::min_value              0                       # Request fanout histogram
system.tol3bus.snoop_fanout::max_value              1                       # Request fanout histogram
system.tol3bus.snoop_fanout::total              26517                       # Request fanout histogram
system.tol3bus.reqLayer0.occupancy           45882500                       # Layer occupancy (ticks)
system.tol3bus.reqLayer0.utilization              0.1                       # Layer utilization (%)
system.tol3bus.respLayer0.occupancy          38093000                       # Layer occupancy (ticks)
system.tol3bus.respLayer0.utilization             0.0                       # Layer utilization (%)

---------- End Simulation Statistics   ----------
